[General]

[Config Indoor]
network = indoor
sim-time-limit = 3600s
record-eventlog = true
