[General]
# nothing here

[Config Indoor]
network = indoor
sim-time-limit = 900s
# record-eventlog = true

[Config Outdoor]
network = outdoor
sim-time-limit = 900s
# record-eventlog = true
